/*--------------------------------*- C++ -*----------------------------------* \
| =========                 |                                                 |
| \\      /  F ield         | OpenFOAM: The Open Source CFD Toolbox           |
|  \\    /   O peration     | Version:  1.6                                   |
|   \\  /    A nd           | Web:      www.OpenFOAM.org                      |
|    \\/     M anipulation  |                                                 |
\*---------------------------------------------------------------------------*/
FoamFile
{
    version     2.0;
    format      ascii;
    class       dictionary;
    location    "system";
    object      sampleDict;
}
// * * * * * * * * * * * * * * * * * * * * * * * * * * * * * * * * * * * * * //

interpolationScheme cellPoint;

surfaceFormat   raw;

setFormat       raw;

fields
(
    Ub alpha
);

sets
(
    lineZ
    {
        type uniform;
        axis z;
        start (0.05 0.05 0.0);
        end (0.05 0.05 0.05);
        nPoints 100;
    }
); 

surfaces
(    
    planeZ_35mm
    {
        type    plane;
        basePoint    (0.05 0.05 0.035);
        normalVector (0.00 0.00 1.00);
        triangulate  false;
    }
    planeY_50mm
    {
        type    plane;
        basePoint    (0.05 0.05 0.025);
        normalVector (0.00 1.00 0.00);
        triangulate  false;
    }
);

// ************************************************************************* //
